Circuit: * C:\users\mateus\Área de Trabalho\Projeto-Filtros-Ativos\simulation\MFB-HighPass.asc

Direct Newton iteration for .op point succeeded.

Date: Wed Nov 01 15:47:47 2023
Total elapsed time: 0.093 seconds.

tnom = 27
temp = 27
method = trap
totiter = 11
traniter = 0
tranpoints = 0
accept = 0
rejected = 0
matrix size = 40
fillins = 28
solver = Normal
Matrix Compiler1:     179 opcodes
Matrix Compiler2: 3.69 KB object code size
